!-Generator IDFEditor 1.48
!-Option SortedOrder
!-NOTE: All comments with '!-' are ignored by the IDFEditor and are generated automatically.
!-      Use '!' comments if they need to be retained when using the IDFEditor.
!-   ===========  ALL OBJECTS IN CLASS: VERSION ===========

  Version,22.2;

!-   ===========  ALL OBJECTS IN CLASS: SIMULATIONCONTROL ===========

  SimulationControl,
    No,                      !- Do Zone Sizing Calculation
    No,                      !- Do System Sizing Calculation
    No,                      !- Do Plant Sizing Calculation
    No,                      !- Run Simulation for Sizing Periods
    Yes,                     !- Run Simulation for Weather File Run Periods
    No,                      !- Do HVAC Sizing Simulation for Sizing Periods
    1;                       !- Maximum Number of HVAC Sizing Simulation Passes

!-   ===========  ALL OBJECTS IN CLASS: BUILDING ===========

  Building,
    ELONGATED,               !- Name
    180,                     !- North Axis {deg}
    City,                    !- Terrain
    0.04,                    !- Loads Convergence Tolerance Value {W}
    0.4,                     !- Temperature Convergence Tolerance Value {deltaC}
    FullInteriorAndExterior, !- Solar Distribution
    25,                      !- Maximum Number of Warmup Days
    ;                        !- Minimum Number of Warmup Days

!-   ===========  ALL OBJECTS IN CLASS: TIMESTEP ===========

  Timestep,4;

!-   ===========  ALL OBJECTS IN CLASS: SITE:LOCATION ===========

  Site:Location,
    PALERMO,                 !- Name
    38.18,                   !- Latitude {deg}
    13.1,                    !- Longitude {deg}
    1.0,                     !- Time Zone {hr}
    36;                      !- Elevation {m}

!-   ===========  ALL OBJECTS IN CLASS: RUNPERIOD ===========

  RunPeriod,
    SIMULATED,               !- Name
    1,                       !- Begin Month
    1,                       !- Begin Day of Month
    ,                        !- Begin Year
    12,                      !- End Month
    31,                      !- End Day of Month
    ,                        !- End Year
    ,                        !- Day of Week for Start Day
    Yes,                     !- Use Weather File Holidays and Special Days
    Yes,                     !- Use Weather File Daylight Saving Period
    No,                      !- Apply Weekend Holiday Rule
    Yes,                     !- Use Weather File Rain Indicators
    Yes,                     !- Use Weather File Snow Indicators
    ;                        !- Treat Weather as Actual

!-   ===========  ALL OBJECTS IN CLASS: RUNPERIODCONTROL:SPECIALDAYS ===========

  RunPeriodControl:SpecialDays,
    New Years Day,           !- Name
    January 1,               !- Start Date
    1,                       !- Duration {days}
    Holiday;                 !- Special Day Type

  RunPeriodControl:SpecialDays,
    Christmas,               !- Name
    December 25,             !- Start Date
    1,                       !- Duration {days}
    Holiday;                 !- Special Day Type

  RunPeriodControl:SpecialDays,
    Republic Day,            !- Name
    June 2,                  !- Start Date
    1,                       !- Duration {days}
    Holiday;                 !- Special Day Type

  RunPeriodControl:SpecialDays,
    Liberation Day,          !- Name
    April 25,                !- Start Date
    1,                       !- Duration {days}
    Holiday;                 !- Special Day Type

  RunPeriodControl:SpecialDays,
    Workers Day,             !- Name
    May 1,                   !- Start Date
    1,                       !- Duration {days}
    Holiday;                 !- Special Day Type

  RunPeriodControl:SpecialDays,
    Epiphany,                !- Name
    January 7,               !- Start Date
    1,                       !- Duration {days}
    Holiday;                 !- Special Day Type

  RunPeriodControl:SpecialDays,
    Mid-August,              !- Name
    August 15,               !- Start Date
    1,                       !- Duration {days}
    Holiday;                 !- Special Day Type

  RunPeriodControl:SpecialDays,
    Saints Day,              !- Name
    November 1,              !- Start Date
    1,                       !- Duration {days}
    Holiday;                 !- Special Day Type

  RunPeriodControl:SpecialDays,
    Immaculate,              !- Name
    December 8,              !- Start Date
    1,                       !- Duration {days}
    Holiday;                 !- Special Day Type

  RunPeriodControl:SpecialDays,
    Saint Stephen,           !- Name
    December 26,             !- Start Date
    1,                       !- Duration {days}
    Holiday;                 !- Special Day Type

!-   ===========  ALL OBJECTS IN CLASS: RUNPERIODCONTROL:DAYLIGHTSAVINGTIME ===========
! Daylight Saving Period in US

  RunPeriodControl:DaylightSavingTime,
    2nd Sunday in March,     !- Start Date
    1st Sunday in November;  !- End Date

!-   ===========  ALL OBJECTS IN CLASS: SITE:GROUNDTEMPERATURE:BUILDINGSURFACE ===========

  Site:GroundTemperature:BuildingSurface,18,18,18,18,18,18,18,18,18,18,18,18;

!-   ===========  ALL OBJECTS IN CLASS: SCHEDULETYPELIMITS ===========

  ScheduleTypeLimits,
    Any Number;              !- Name

  ScheduleTypeLimits,
    Fraction,                !- Name
    0.0,                     !- Lower Limit Value
    1.0,                     !- Upper Limit Value
    CONTINUOUS;              !- Numeric Type

  ScheduleTypeLimits,
    Temperature,             !- Name
    -60,                     !- Lower Limit Value
    200,                     !- Upper Limit Value
    CONTINUOUS;              !- Numeric Type

  ScheduleTypeLimits,
    On/Off,                  !- Name
    0,                       !- Lower Limit Value
    1,                       !- Upper Limit Value
    DISCRETE;                !- Numeric Type

  ScheduleTypeLimits,
    Control Type,            !- Name
    0,                       !- Lower Limit Value
    4,                       !- Upper Limit Value
    DISCRETE;                !- Numeric Type

  ScheduleTypeLimits,
    Humidity,                !- Name
    10,                      !- Lower Limit Value
    90,                      !- Upper Limit Value
    CONTINUOUS;              !- Numeric Type

  ScheduleTypeLimits,
    Number;                  !- Name

!-   ===========  ALL OBJECTS IN CLASS: SCHEDULE:COMPACT ===========

  Schedule:Compact,
    Always On_Schedule,      !- Name
    Fraction,                !- Schedule Type Limits Name
    Through: 12/31,          !- Field 1
    For: AllDays,            !- Field 2
    Until: 24:00,1.0;        !- Field 3

  Schedule:Compact,
    Always Off_Schedule,    !- Name
    Fraction,                !- Schedule Type Limits Name
    Through: 12/31,          !- Field 1
    For: AllDays,            !- Field 2
    Until: 24:00,0.0;        !- Field 3

  Schedule:Compact,
    RESID_HEATING_Schedule,  !- Name
    Temperature,             !- Schedule Type Limits Name
    Through: 04/15,          !- Field 1
    For: Weekdays,           !- Field 2
    Until: 06:00,10,         !- Field 3
    Until: 08:00,20,         !- Field 5
    Until: 13:00,10,         !- Field 7
    Until: 15:00,20,         !- Field 9
    Until: 19:00,10,         !- Field 11
    Until: 22:00,20,         !- Field 13
    Until: 24:00,10,         !- Field 15
    For: AllOtherDays,       !- Field 17
    Until: 08:00,10,         !- Field 18
    Until: 15:00,20,         !- Field 20
    Until: 19:00,10,         !- Field 22
    Until: 22:00,20,         !- Field 24
    Until: 24:00,10,         !- Field 26
    Through: 10/31,          !- Field 28
    For: AllDays,            !- Field 29
    Until: 24:00,10,         !- Field 30
    Through: 12/31,          !- Field 32
    For: Weekdays,           !- Field 33
    Until: 06:00,10,         !- Field 34
    Until: 08:00,20,         !- Field 36
    Until: 13:00,10,         !- Field 38
    Until: 15:00,20,         !- Field 40
    Until: 19:00,10,         !- Field 42
    Until: 22:00,20,         !- Field 44
    Until: 24:00,10,         !- Field 46
    For: AllOtherDays,       !- Field 48
    Until: 08:00,10,         !- Field 49
    Until: 15:00,20,         !- Field 51
    Until: 19:00,10,         !- Field 53
    Until: 22:00,20,         !- Field 55
    Until: 24:00,10;         !- Field 57

  Schedule:Compact,
    RESID_COOLING_Schedule,  !- Name
    Temperature,             !- Schedule Type Limits Name
    Through: 04/15,          !- Field 1
    For: AllDays,            !- Field 2
    Until: 24:00,70,         !- Field 3
    Through: 06/15,          !- Field 5
    For: Weekdays,           !- Field 6
    Until: 15:00,70,         !- Field 7
    Until: 22:00,26,         !- Field 9
    Until: 24:00,70,         !- Field 11
    For: AllOtherDays,       !- Field 13
    Until: 15:00,70,         !- Field 14
    Until: 22:00,26,         !- Field 16
    Until: 24:00,70,         !- Field 18
    Through: 09/15,          !- Field 20
    For: Weekdays,           !- Field 21
    Until: 13:00,70,         !- Field 22
    Until: 22:00,26,         !- Field 24
    Until: 24:00,70,         !- Field 26
    For: AllOtherDays,       !- Field 28
    Until: 13:00,70,         !- Field 29
    Until: 22:00,26,         !- Field 31
    Until: 24:00,70,         !- Field 33
    Through: 10/31,          !- Field 35
    For: Weekdays,           !- Field 36
    Until: 15:00,70,         !- Field 37
    Until: 22:00,26,         !- Field 39
    Until: 24:00,70,         !- Field 41
    For: AllOtherDays,       !- Field 43
    Until: 15:00,70,         !- Field 44
    Until: 22:00,26,         !- Field 46
    Until: 24:00,70,         !- Field 48
    Through: 12/31,          !- Field 50
    For: AllDays,            !- Field 51
    Until: 24:00,70;         !- Field 52

  Schedule:Compact,
    RESID_EQUIPM_ZonGiorno_Schedule,  !- Name
    Fraction,                !- Schedule Type Limits Name
    Through: 12/31,          !- Field 1
    For: WeekDays,           !- Field 2
    Until: 06:00,.2,         !- Field 3
    Until: 07:00,.4,         !- Field 5
    Until: 08:00,.8,         !- Field 7
    Until: 09:00,.3,         !- Field 9
    Until: 11:00,.2,         !- Field 11
    Until: 13:00,.2,         !- Field 13
    Until: 15:00,.6,         !- Field 15
    Until: 19:00,.4,         !- Field 17
    Until: 21:00,.95,        !- Field 19
    Until: 22:00,.5,         !- Field 21
    Until: 24:00,.3,         !- Field 23
    For: AllOtherDays,       !- Field 25
    Until: 08:00,0.2,        !- Field 26
    Until: 09:00,0.4,        !- Field 28
    Until: 10:00,0.8,        !- Field 30
    Until: 13:00,0.3,        !- Field 32
    Until: 15:00,0.8,        !- Field 34
    Until: 18:00,0.3,        !- Field 36
    Until: 19:00,.4,         !- Field 38
    Until: 21:00,0.95,       !- Field 40
    Until: 22:00,.5,         !- Field 42
    Until: 24:00,.3;         !- Field 44

! Schedule Multifamily High-Rise Two-Zone Dwelling Unit, Bedrooms and Bathrooms Equipment, ASHRAE 90.1-1989, Section 13
!  Equivalent Full-Load Hours: All days 1.25

  Schedule:Compact,
    RESID_EQUIPM_Bedroom_Schedule,  !- Name
    Fraction,                !- Schedule Type Limits Name
    Through: 12/31,          !- Field 1
    For: WeekDays,           !- Field 2
    Until: 06:00,0.05,       !- Field 3
    Until: 07:00,.4,         !- Field 5
    Until: 08:00,0.6,        !- Field 7
    Until: 21:00,0.05,       !- Field 9
    Until: 22:00,.4,         !- Field 11
    Until: 23:00,.8,         !- Field 13
    Until: 24:00,0.05,       !- Field 15
    For: AllOtherDays,       !- Field 17
    Until: 08:00,0.05,       !- Field 18
    Until: 09:00,.5,         !- Field 20
    Until: 21:00,0,          !- Field 22
    Until: 22:00,.4,         !- Field 24
    Until: 23:00,.8,         !- Field 26
    Until: 24:00,0.05;       !- Field 28

! Schedule Multifamily High-Rise One-Zone Dwelling Unit Lighting, ASHRAE 90.1-1989, Section 13
!  Equivalent Full-Load Hours: All days 6.3

  Schedule:Compact,
    RESID_LIGHTS_ZonGiorno_Schedule,  !- Name
    Fraction,                !- Schedule Type Limits Name
    Through: 12/31,          !- Field 1
    For: WeekDays,           !- Field 2
    Until: 06:00,0,          !- Field 3
    Until: 07:00,.7,         !- Field 5
    Until: 08:00,.9,         !- Field 7
    Until: 13:00,0,          !- Field 9
    Until: 15:00,.2,         !- Field 11
    Until: 19:00,.3,         !- Field 13
    Until: 21:00,0.9,        !- Field 15
    Until: 22:00,.8,         !- Field 17
    Until: 23:00,.4,         !- Field 19
    Until: 24:00,0,          !- Field 21
    For: AllOtherDays,       !- Field 23
    Until: 08:00,0,          !- Field 24
    Until: 09:00,.8,         !- Field 26
    Until: 10:00,.9,         !- Field 28
    Until: 13:00,0,          !- Field 30
    Until: 15:00,.2,         !- Field 32
    Until: 18:00,0,          !- Field 34
    Until: 19:00,.3,         !- Field 36
    Until: 21:00,0.9,        !- Field 38
    Until: 22:00,.8,         !- Field 40
    Until: 23:00,.4,         !- Field 42
    Until: 24:00,0;          !- Field 44

! Schedule Multifamily High-Rise Two-Zone Dwelling Unit, Bedrooms and Bathrooms Lighting, ASHRAE 90.1-1989, Section 13
!  Equivalent Full-Load Hours: All days 3.24

  Schedule:Compact,
    RESID_LIGHTS_Bedroom_Schedule,  !- Name
    Fraction,                !- Schedule Type Limits Name
    Through: 12/31,          !- Field 1
    For: WeekDays,           !- Field 2
    Until: 06:00,0,          !- Field 3
    Until: 07:00,.2,         !- Field 5
    Until: 08:00,0.4,        !- Field 7
    Until: 21:00,0.0,        !- Field 9
    Until: 22:00,.5,         !- Field 11
    Until: 23:00,.8,         !- Field 13
    Until: 24:00,0.1,        !- Field 15
    For: AllOtherDays,       !- Field 17
    Until: 08:00,0,          !- Field 18
    Until: 09:00,.4,         !- Field 20
    Until: 21:00,0,          !- Field 22
    Until: 22:00,.5,         !- Field 24
    Until: 23:00,.8,         !- Field 26
    Until: 24:00,0.1;        !- Field 28

! Schedule Multifamily High-Rise One-Zone Dwelling Unit Occupancy, ASHRAE 90.1-1989, Section 13
!  Equivalent Full-Load Hours: All days 11.76

  Schedule:Compact,
    RESID_People_ZonGiornO_Schedule,  !- Name
    Fraction,                !- Schedule Type Limits Name
    Through: 12/31,          !- Field 1
    For: WeekDays,           !- Field 2
    Until: 06:00,0,          !- Field 3
    Until: 07:00,.25,        !- Field 5
    Until: 08:00,1,          !- Field 7
    Until: 13:00,0,          !- Field 9
    Until: 15:00,.5,         !- Field 11
    Until: 19:00,.25,        !- Field 13
    Until: 21:00,1,          !- Field 15
    Until: 22:00,.75,        !- Field 17
    Until: 23:00,.5,         !- Field 19
    Until: 24:00,0,          !- Field 21
    For: AllOtherDays,       !- Field 23
    Until: 08:00,0,          !- Field 24
    Until: 09:00,.5,         !- Field 26
    Until: 10:00,1,          !- Field 28
    Until: 13:00,0,          !- Field 30
    Until: 15:00,1,          !- Field 32
    Until: 18:00,0,          !- Field 34
    Until: 19:00,.5,         !- Field 36
    Until: 21:00,1,          !- Field 38
    Until: 22:00,.75,        !- Field 40
    Until: 23:00,.5,         !- Field 42
    Until: 24:00,0;          !- Field 44

! Schedule Multifamily High-Rise Two-Zone Dwelling Unit, Bedrooms and Bathrooms Occupancy, ASHRAE 90.1-1989, Section 13
!  Equivalent Full-Load Hours: All days 6.83

  Schedule:Compact,
    RESID_People_Bedroom_Schedule,  !- Name
    Fraction,                !- Schedule Type Limits Name
    Through: 12/31,          !- Field 1
    For: WeekDays,           !- Field 2
    Until: 06:00,1,          !- Field 3
    Until: 07:00,.75,        !- Field 5
    Until: 08:00,0,          !- Field 7
    Until: 21:00,0.0,        !- Field 9
    Until: 22:00,.25,        !- Field 11
    Until: 23:00,.5,         !- Field 13
    Until: 24:00,1,          !- Field 15
    For: AllOtherDays,       !- Field 17
    Until: 08:00,1,          !- Field 18
    Until: 09:00,.5,         !- Field 20
    Until: 21:00,0,          !- Field 22
    Until: 22:00,.25,        !- Field 24
    Until: 23:00,.5,         !- Field 26
    Until: 24:00,1;          !- Field 28

  Schedule:Compact,
    RESID_LIGHTS_disimp_Schedule,  !- Name
    Fraction,                !- Schedule Type Limits Name
    Through: 12/31,          !- Field 1
    For: AllDays,            !- Field 2
    Until: 06:00,0.0,        !- Field 3
    Until: 07:00,.4,         !- Field 5
    Until: 08:00,.5,         !- Field 7
    Until: 19:00,0.0,        !- Field 9
    Until: 21:00,.4,         !- Field 11
    Until: 22:00,.3,         !- Field 13
    Until: 24:00,.1;         !- Field 15

  Schedule:Compact,
    RESID_Activity_ZonGiorno,!- Name
    Any Number,              !- Schedule Type Limits Name
    Through: 12/31,          !- Field 1
    For: AllDays,            !- Field 2
    Until: 24:00,170;        !- Field 3

  Schedule:Compact,
    RESID_Activity_BedRoom,  !- Name
    Any Number,              !- Schedule Type Limits Name
    Through: 12/31,          !- Field 1
    For: AllDays,            !- Field 2
    Until: 24:00,72;         !- Field 3

  Schedule:Compact,
    OFFICE_HEATING,          !- Name
    Temperature,             !- Schedule Type Limits Name
    Through: 04/15,          !- Field 1
    For: Weekdays,           !- Field 2
    Until: 08:00,-30,        !- Field 3
    Until: 18:00,20,         !- Field 5
    Until: 24:00,-30,        !- Field 7
    For: AllOtherDays,       !- Field 9
    Until: 24:00,-30,        !- Field 10
    Through: 10/31,          !- Field 12
    For: AllDays,            !- Field 13
    Until: 24:00,-30,        !- Field 14
    Through: 12/31,          !- Field 16
    For: Weekdays,           !- Field 17
    Until: 08:00,-30,        !- Field 18
    Until: 18:00,20,         !- Field 20
    Until: 24:00,-30,        !- Field 22
    For: AllOtherDays,       !- Field 24
    Until: 24:00,-30;        !- Field 25

  Schedule:Compact,
    OFFICE_COOLING,          !- Name
    Temperature,             !- Schedule Type Limits Name
    Through: 04/15,          !- Field 1
    For: AllDays,            !- Field 2
    Until: 24:00,70,         !- Field 3
    Through: 10/31,          !- Field 5
    For: Weekdays,           !- Field 6
    Until: 08:00,70,         !- Field 7
    Until: 18:00,26,         !- Field 9
    Until: 24:00,70,         !- Field 11
    For: AllOtherDays,       !- Field 13
    Until: 24:00,70,         !- Field 14
    Through: 12/31,          !- Field 16
    For: AllDays,            !- Field 17
    Until: 24:00,70;         !- Field 18

  Schedule:Compact,
    OFFICE_People_Schedule,!- Name
    Fraction,                !- Schedule Type Limits Name
    Through: 01/07,          !- Field 1
    For: AllDays,            !- Field 2
    Until: 24:00,0,          !- Field 3
    Through: 03/01,          !- Field 5
    For: Weekdays,           !- Field 6
    Until: 08:00,0,          !- Field 7
    Until: 18:00,1,          !- Field 9
    Until: 24:00,0,          !- Field 11
    For: AllOtherDays,       !- Field 13
    Until: 24:00,0,          !- Field 14
    Through: 06/01,          !- Field 16
    For: Weekdays,           !- Field 17
    Until: 08:00,0,          !- Field 18
    Until: 12:00,.5,         !- Field 20
    Until: 14:00,1,          !- Field 22
    Until: 18:00,.8,         !- Field 24
    Until: 24:00,0,          !- Field 26
    For: AllOtherdays,       !- Field 28
    Until: 24:00,0,          !- Field 29
    Through: 08/01,          !- Field 31
    For: Weekdays,           !- Field 32
    Until: 08:00,0,          !- Field 33
    Until: 18:00,.8,         !- Field 35
    Until: 24:00,0,          !- Field 37
    For: AllOtherdays,       !- Field 39
    Until: 24:00,0,          !- Field 40
    Through: 09/01,          !- Field 42
    For: AllDays,            !- Field 43
    Until: 24:00,0,          !- Field 44
    Through: 10/01,          !- Field 46
    For: Weekdays,           !- Field 47
    Until: 08:00,0,          !- Field 48
    Until: 18:00,1,          !- Field 50
    Until: 24:00,0,          !- Field 52
    For: AllOtherDays,       !- Field 54
    Until: 24:00,0,          !- Field 55
    Through: 12/20,          !- Field 57
    For: Weekdays,           !- Field 58
    Until: 08:00,0,          !- Field 59
    Until: 12:00,.5,         !- Field 61
    Until: 14:00,1,          !- Field 63
    Until: 18:00,.8,         !- Field 65
    Until: 24:00,0,          !- Field 67
    For: AllOtherDays,       !- Field 69
    Until: 24:00,0,          !- Field 70
    Through: 12/31,          !- Field 72
    For: AllDays,            !- Field 73
    Until: 24:00,0;          !- Field 74

  Schedule:Compact,
    OFFICE_Equipment_Schedule,  !- Name
    Fraction,                !- Schedule Type Limits Name
    Through: 01/07,          !- Field 1
    For: AllDays,            !- Field 2
    Until: 24:00,0,          !- Field 3
    Through: 03/01,          !- Field 5
    For: Weekdays,           !- Field 6
    Until: 08:00,0.05,       !- Field 7
    Until: 18:00,1,          !- Field 9
    Until: 24:00,0.05,       !- Field 11
    For: AllOtherDays,       !- Field 13
    Until: 24:00,0.05,       !- Field 14
    Through: 06/01,          !- Field 16
    For: Weekdays,           !- Field 17
    Until: 08:00,0.05,       !- Field 18
    Until: 12:00,1,          !- Field 20
    Until: 14:00,0.6,        !- Field 22
    Until: 18:00,1,          !- Field 24
    Until: 24:00,0.05,       !- Field 26
    For: AllOtherdays,       !- Field 28
    Until: 24:00,0.05,       !- Field 29
    Through: 08/01,          !- Field 31
    For: Weekdays,           !- Field 32
    Until: 08:00,0.05,       !- Field 33
    Until: 18:00,1,          !- Field 35
    Until: 24:00,0.05,       !- Field 37
    For: AllOtherdays,       !- Field 39
    Until: 24:00,0.05,       !- Field 40
    Through: 09/01,          !- Field 42
    For: AllDays,            !- Field 43
    Until: 24:00,0,          !- Field 44
    Through: 10/01,          !- Field 46
    For: Weekdays,           !- Field 47
    Until: 08:00,0.05,       !- Field 48
    Until: 18:00,1,          !- Field 50
    Until: 24:00,0.05,       !- Field 52
    For: AllOtherDays,       !- Field 54
    Until: 24:00,0.05,       !- Field 55
    Through: 12/20,          !- Field 57
    For: Weekdays,           !- Field 58
    Until: 08:00,0.05,       !- Field 59
    Until: 12:00,1,          !- Field 61
    Until: 14:00,0.6,        !- Field 63
    Until: 18:00,1,          !- Field 65
    Until: 24:00,0.05,       !- Field 67
    For: AllOtherDays,       !- Field 69
    Until: 24:00,0.05,       !- Field 70
    Through: 12/31,          !- Field 72
    For: AllDays,            !- Field 73
    Until: 24:00,0;          !- Field 74

  Schedule:Compact,
    OFFICE_Light_Schedule,  !- Name
    Fraction,                !- Schedule Type Limits Name
    Through: 01/07,          !- Field 1
    For: AllDays,            !- Field 2
    Until: 24:00,0.05,       !- Field 3
    Through: 03/01,          !- Field 5
    For: Weekdays,           !- Field 6
    Until: 08:00,0.05,       !- Field 7
    Until: 18:00,0.9,        !- Field 9
    Until: 24:00,0.05,       !- Field 11
    For: AllOtherDays,       !- Field 13
    Until: 24:00,0.05,       !- Field 14
    Through: 06/01,          !- Field 16
    For: Weekdays,           !- Field 17
    Until: 08:00,0.05,       !- Field 18
    Until: 12:00,.2,         !- Field 20
    Until: 14:00,0.3,        !- Field 22
    Until: 18:00,.8,         !- Field 24
    Until: 24:00,0.05,       !- Field 26
    For: AllOtherdays,       !- Field 28
    Until: 24:00,0.05,       !- Field 29
    Through: 08/01,          !- Field 31
    For: Weekdays,           !- Field 32
    Until: 08:00,0.05,       !- Field 33
    Until: 18:00,.3,         !- Field 35
    Until: 24:00,0.05,       !- Field 37
    For: AllOtherdays,       !- Field 39
    Until: 24:00,0.05,       !- Field 40
    Through: 09/01,          !- Field 42
    For: AllDays,            !- Field 43
    Until: 24:00,0.05,       !- Field 44
    Through: 10/01,          !- Field 46
    For: Weekdays,           !- Field 47
    Until: 08:00,0.05,       !- Field 48
    Until: 18:00,.6,         !- Field 50
    Until: 24:00,0.05,       !- Field 52
    For: AllOtherDays,       !- Field 54
    Until: 24:00,0.05,       !- Field 55
    Through: 12/20,          !- Field 57
    For: Weekdays,           !- Field 58
    Until: 08:00,0.05,       !- Field 59
    Until: 12:00,.5,         !- Field 61
    Until: 14:00,.6,         !- Field 63
    Until: 18:00,.9,         !- Field 65
    Until: 24:00,0.05,       !- Field 67
    For: AllOtherDays,       !- Field 69
    Until: 24:00,0.05,       !- Field 70
    Through: 12/31,          !- Field 72
    For: AllDays,            !- Field 73
    Until: 24:00,0.05;       !- Field 74

  Schedule:Compact,
    OFFICE_Activity,         !- Name
    Any Number,              !- Schedule Type Limits Name
    Through: 12/31,          !- Field 1
    For: AllDays,            !- Field 2
    Until: 24:00,105;        !- Field 3

  Schedule:Compact,
    OFFICE_LIGHTS_disimp_Schedule,  !- Name
    Fraction,                !- Schedule Type Limits Name
    Through: 12/31,          !- Field 1
    For: WeekDays,           !- Field 2
    Until: 06:00,.05,        !- Field 3
    Until: 07:00,.05,        !- Field 5
    Until: 08:00,.1,         !- Field 7
    Until: 18:00,.4,         !- Field 9
    Until: 24:00,.05,        !- Field 11
    For: AllOtherDays,       !- Field 13
    Until: 24:00,.05;        !- Field 14

  Schedule:Compact,
    VENTILATION_windows_Schedule,  !- Name
    Fraction,                !- Schedule Type Limits Name
    Through: 01/07,          !- Field 1
    For: AllDays,            !- Field 2
    Until: 24:00,0,          !- Field 3
    Through: 03/01,          !- Field 5
    For: Weekdays,           !- Field 6
    Until: 08:00,0,          !- Field 7
    Until: 18:00,.1,         !- Field 9
    Until: 24:00,0,          !- Field 11
    For: AllOtherDays,       !- Field 13
    Until: 24:00,0,          !- Field 14
    Through: 06/01,          !- Field 16
    For: Weekdays,           !- Field 17
    Until: 08:00,0,          !- Field 18
    Until: 18:00,.3,         !- Field 20
    Until: 24:00,0,          !- Field 22
    For: AllOtherDays,       !- Field 24
    Until: 24:00,0,          !- Field 25
    Through: 08/01,          !- Field 27
    For: WeekDays,           !- Field 28
    Until: 08:00,0,          !- Field 29
    Until: 18:00,.5,         !- Field 31
    Until: 24:00,0,          !- Field 33
    For: AllOtherDays,       !- Field 35
    Until: 24:00,0,          !- Field 36
    Through: 09/01,          !- Field 38
    For: AllDays,            !- Field 39
    Until: 24:00,0,          !- Field 40
    Through: 10/01,          !- Field 42
    For: Weekdays,           !- Field 43
    Until: 08:00,0,          !- Field 44
    Until: 18:00,.3,         !- Field 46
    Until: 24:00,0,          !- Field 48
    For: AllOtherDays,       !- Field 50
    Until: 24:00,0,          !- Field 51
    Through: 12/20,          !- Field 53
    For: Weekdays,           !- Field 54
    Until: 08:00,0,          !- Field 55
    Until: 18:00,.1,         !- Field 57
    Until: 24:00,0,          !- Field 59
    For: AllOtherDays,       !- Field 61
    Until: 24:00,0,          !- Field 62
    Through: 12/31,          !- Field 64
    For: AllDays,            !- Field 65
    Until: 24:00,0;          !- Field 66

  Schedule:Compact,
    AirVelocity_schedule,    !- Name
    Number,                  !- Schedule Type Limits Name
    Through: 12/31,          !- Field 1
    For: AllDays,            !- Field 2
    Until: 24:00,.1;         !- Field 3

  Schedule:Compact,
    WorkEfficiency_schedule, !- Name
    Fraction,                !- Schedule Type Limits Name
    Through: 12/31,          !- Field 1
    For: AllDays,            !- Field 2
    Until: 24:00,.0;         !- Field 3

  Schedule:Compact,
    Clothing_schedule,       !- Name
    Fraction,                !- Schedule Type Limits Name
    Through: 05/01,          !- Field 1
    For: AllDays,            !- Field 2
    Until: 24:00,1,          !- Field 3
    Through: 10/01,          !- Field 5
    For: AllDays,            !- Field 6
    Until:24:00,.5,          !- Field 7
    Through: 12/31,          !- Field 9
    For: AllDays,            !- Field 10
    Until: 24:00,1;          !- Field 11

!-   ===========  ALL OBJECTS IN CLASS: MATERIAL ===========

  Material,
    F08 Metal surface,       !- Name
    Smooth,                  !- Roughness
    0.0008,                  !- Thickness {m}
    45.28,                   !- Conductivity {W/m-K}
    7824,                    !- Density {kg/m3}
    500;                     !- Specific Heat {J/kg-K}

  Material,
    F16 Acoustic tile,       !- Name
    MediumSmooth,            !- Roughness
    0.0191,                  !- Thickness {m}
    0.06,                    !- Conductivity {W/m-K}
    368,                     !- Density {kg/m3}
    590;                     !- Specific Heat {J/kg-K}

  Material,
    I02 50mm insulation board,  !- Name
    MediumRough,             !- Roughness
    0.0508,                  !- Thickness {m}
    0.03,                    !- Conductivity {W/m-K}
    43,                      !- Density {kg/m3}
    1210;                    !- Specific Heat {J/kg-K}

  Material,
    M01 100mm brick,         !- Name
    MediumRough,             !- Roughness
    0.1,                     !- Thickness {m}
    0.89,                    !- Conductivity {W/m-K}
    1920,                    !- Density {kg/m3}
    790;                     !- Specific Heat {J/kg-K}

  Material,
    G05 25mm wood,           !- Name
    MediumSmooth,            !- Roughness
    0.0254,                  !- Thickness {m}
    0.15,                    !- Conductivity {W/m-K}